 11
 Electronic Energy = -134.630223145 UPDATED
C	1.258542 -0.277041 -0.000039
N	0.000000 0.542656 0.000044
C	-1.258542 -0.277041 -0.000001
H	0.000013 1.160169 0.816325
H	1.258375 -0.894980 -0.891847
H	2.112046 0.393104 0.000176
H	1.258247 -0.895402 0.891476
H	-1.258394 -0.894993 -0.891799
H	-1.258228 -0.895388 0.891525
H	-2.112046 0.393105 0.000222
H	-0.000013 1.160283 -0.816147
all32_cgenff q  epsilon (kJ/mol) sigma (AA)
-0.38863  0.3264 3.5280 # CG3AM1
-0.64756  0.1883 3.5636 # NG311
-0.38863  0.3264 3.5280 # CG3AM1
0.47236  0.1172  2.2807 # HGPAM1
0.24527  0.1172  2.2807 # HGAAM1
0.24952  0.1172  2.2807 # HGAAM1
0.24527  0.1172  2.2807 # HGAAM1
0.24527  0.1172  2.2807 # HGAAM1
0.24527  0.1172  2.2807 # HGAAM1
0.24952  0.1172  2.2807 # HGAAM1
0.47236  0.1172  2.2807 # HGAAM1
