 9
 Electronic Energy = -204.147521981 UPDATED
C	0.017520 0.121917 -0.000387
N	-1.270324 -0.404501 -0.084231
N	0.196497 1.397766 0.010856
N	0.986622 -0.885633 0.079698
H	-1.439789 -1.182321 0.538978
H	-1.967806 0.321572 0.007035
H	1.934501 -0.557224 -0.034518
H	0.790224 -1.688991 -0.502285
H	1.188185 1.622035 -0.051145
all32_cgenff q  epsilon (kJ/mol) sigma (AA)
0.71954  0.46024  3.5636 # CG2N1
-0.93395  0.83680  3.2963 # NG2P1
-0.86004  0.83680  3.2963 # NG2PD1
-0.93590  0.83680  3.2963 # NG2P1
0.40622  0.19246  1.7961 # HGP2
0.42466  0.19246  1.7961 # HGP2
0.40790  0.19246  1.7961 # HGP2
0.41281  0.19246  1.7961 # HGP2
0.35876  0.19246  1.7961 # HGP2
