5
HIO3-PC.log	Energy: -327499.7500433
I         -0.09688        0.00571       -0.24244
O          1.82919       -0.27836        0.23994
H          1.91852       -0.05409        1.19016
O         -0.95629       -1.32314        0.63172
O         -0.47089        1.57042        0.58574
HIO3-PC q epsilon (kJ/mol) sigma (AA)
1.101666 0.6276 4.0447
-0.553232 1.0455 3.15
0.400951 0.1255 0.400
-0.467371 1.0455 3.15
-0.482013 1.0455 3.15
