4
IO3-anion-PC.log	Energy: -327171.2427495
I          0.00000        0.00000        0.21679
O          0.00000        1.66674       -0.47875
O          1.44344       -0.83337       -0.47875
O         -1.44344       -0.83337       -0.47875
IO3-anion-PC q epsilon (kJ/mol) sigma (AA)
0.680572 0.6276 4.0447
-0.559572 1.0455 3.15
-0.559806 1.0455 3.15
-0.561194 1.0455 3.15
