 8
 Electronic_Energy: -661.715984342
C	1.617588 0.000620 0.000269
S	-0.168500 -0.000021 0.000004
O	-0.537854 0.626504 -1.263110
O	-0.537067 -1.407478 0.088659
O	-0.538511 0.780266 1.174124
H	1.966025 -0.454049 0.918995
H	1.966346 -0.567420 -0.852914
H	1.965556 1.023758 -0.065138
all32_cgenff q  epsilon (kJ/mol) sigma (AA)
-0.519955  0.30     3.6    # C 0.2-0.5 3.5-3.6 
1.729732   1.05     3.55   # S 
-0.865728  1.05     3.15   # O 0.8-1 3.15
-0.865811  1.05     3.15   # O 0.8-1 3.15
-0.865648  1.05     3.15   # O 0.8-1 3.15
0.129136   0.19     2.4    # H 0.1-0.2 0.4-3 | OH 0.16 0.4 | CH 0.12 2.4
0.129156   0.19     2.4    # H 0.1-0.2 0.4-3 | OH 0.16 0.4 | CH 0.12 2.4
0.129120   0.19     2.4    # H 0.1-0.2 0.4-3 | OH 0.16 0.4 | CH 0.12 2.4
